Version 4
SHEET 1 880 680
TEXT 100 100 Left 2 ;Exp3 H-Bridge - see connections.md
TEXT 100 130 Left 2 ;Use BJT models 2N2222 and 2N2907
.tran 0 10m 0 10n startup
