Version 4
SHEET 1 880 680
TEXT 100 100 Left 2 ;Exp2 PWM Modulator - see connections.md
TEXT 100 130 Left 2 ;Use UniversalOpAmp2 for MCP6004 Rail=5
.tran 0 10m 0 10n startup
